Circuit: * D:\WFR2020\ACC-MB\Rev3\HVIBDC\HVIB.asc

Direct Newton iteration for .op point succeeded.

Date: Fri Nov 22 20:17:55 2019
Total elapsed time: 0.336 seconds.

tnom = 27
temp = 27
method = modified trap
totiter = 3103
traniter = 3061
tranpoints = 1251
accept = 1185
rejected = 66
matrix size = 26
fillins = 7
solver = Normal
Matrix Compiler1: 1.82 KB object code size  1.0/0.5/[0.4]
Matrix Compiler2: 2.08 KB object code size  0.4/0.8/[0.4]

