Circuit: * D:\WFR2020\ACC-MB\Rev3\HVIBDC\HVIB.asc

Direct Newton iteration for .op point succeeded.

Date: Sun Dec 08 13:43:21 2019
Total elapsed time: 0.372 seconds.

tnom = 27
temp = 27
method = modified trap
totiter = 3177
traniter = 3155
tranpoints = 1359
accept = 1269
rejected = 90
matrix size = 31
fillins = 2
solver = Normal
Matrix Compiler1: 2.05 KB object code size  0.9/5.1/[0.3]
Matrix Compiler2: off  [0.3]/0.5/0.4

