Circuit: * D:\WFR2020\ACC-MB\Rev2\HVIBDC\HVIB.asc

Direct Newton iteration for .op point succeeded.

Date: Thu Nov 14 08:42:48 2019
Total elapsed time: 0.085 seconds.

tnom = 27
temp = 27
method = modified trap
totiter = 2253
traniter = 2226
tranpoints = 1095
accept = 1084
rejected = 11
matrix size = 15
fillins = 0
solver = Normal
Matrix Compiler1: 990 bytes object code size  0.4/0.2/[0.2]
Matrix Compiler2: off  [0.2]/0.3/0.3

