Circuit: * D:\WFR2020\ACC-MB\Rev1\HVIBDC\HVIB.asc

.OP point found by inspection.

Date: Sat Oct 26 12:24:04 2019
Total elapsed time: 0.440 seconds.

tnom = 27
temp = 27
method = trap
totiter = 80000
traniter = 0
tranpoints = 0
accept = 0
rejected = 0
matrix size = 10
fillins = 0
solver = Normal
Matrix Compiler1: 758 bytes object code size  0.3/0.1/[0.1]
Matrix Compiler2: 822 bytes object code size  0.1/0.2/[0.1]

