Circuit: * D:\WFR2020\ACC-MB\Rev3\HVIBDC\Draft1.asc

Direct Newton iteration for .op point succeeded.

Date: Thu Dec 19 21:23:44 2019
Total elapsed time: 0.055 seconds.

tnom = 27
temp = 27
method = modified trap
totiter = 2160
traniter = 2156
tranpoints = 1075
accept = 1075
rejected = 0
matrix size = 8
fillins = 0
solver = Normal
Matrix Compiler1: 138 bytes object code size  0.1/0.1/[0.0]
Matrix Compiler2: off  [0.0]/0.1/0.1

